Circuit: * C:\Users\Hemant Kothari\Downloads\Draft1.asc

Direct Newton iteration for .op point succeeded.

Date: Fri Sep 27 02:35:55 2024
Total elapsed time: 1.126 seconds.

tnom = 27
temp = 27
method = modified trap
totiter = 231122
traniter = 231117
tranpoints = 84323
accept = 65464
rejected = 18859
matrix size = 11
fillins = 3
solver = Normal
Avg thread counts: 1.0/1.0/1.0/1.0
Matrix Compiler1: 722 bytes object code size  0.6/0.4/[0.4]
Matrix Compiler2: off  [0.3]/0.5/0.3

